/*--------------------------------*- C++ -*----------------------------------*\
  =========                 |
  \\      /  F ield         | OpenFOAM: The Open Source CFD Toolbox
   \\    /   O peration     | Website:  https://openfoam.org
    \\  /    A nd           | Version:  7
     \\/     M anipulation  |
\*---------------------------------------------------------------------------*/
FoamFile
{
    version     2.0;
    format      ascii;
    class       volScalarField;
    object      k;
}
// * * * * * * * * * * * * * * * * * * * * * * * * * * * * * * * * * * * * * //

dimensions      [0 2 -2 0 0 0 0];

internalField   uniform 0;

boundaryField
{
    velocityInlet
    {
        type            fixedValue;
        value           uniform 2e-05;
    }

    pressureOutlet
    {
        type            inletOutlet;
        inletValue      uniform 0;
        value           uniform 0;
    }

    fixedWalls
    {
        type            fixedValue;
        value           uniform 0;
    }

    bottomWall
    {
	type 		fixedValue;
	value		uniform 0;
    }

    frontAndBack
    {
        type            empty;
    }
}

// ************************************************************************* //
